tests/fuzzer/corpus_json/21_random_016.json
{
  "version": "1.0",
  "type": "input",
  "is_batch": false,
  "attributes": {},
  "data": {
    "node": [
      {
        "id": 0,
        "u_rated": 110000.0
      },
      {
        "id": 1,
        "u_rated": 110000.0
      },
      {
        "id": 2,
        "u_rated": 110000.0
      },
      {
        "id": 3,
        "u_rated": 110000.0
      },
      {
        "id": 4,
        "u_rated": 110000.0
      },
      {
        "id": 5,
        "u_rated": 110000.0
      },
      {
        "id": 6,
        "u_rated": 110000.0
      }
    ],
    "source": [
      {
        "id": 7,
        "node": 0,
        "status": 1,
        "u_ref": 0.983390525321133,
        "u_ref_angle": 0.0,
        "sk": 480532617.53473383,
        "rx_ratio": 0.2233796268919616,
        "z01_ratio": 1.0
      }
    ],
    "line": [
      {
        "id": 8,
        "from_node": 0,
        "to_node": 1,
        "from_status": 1,
        "to_status": 1,
        "r1": 3.288529131971354,
        "x1": 1.2942769094503914,
        "c1": 6.349959241034841e-07,
        "tan1": 0.0,
        "r0": 0.3,
        "x0": 0.3,
        "c0": 1e-09,
        "tan0": 0.0,
        "i_n": 20.027089891071526
      },
      {
        "id": 9,
        "from_node": 1,
        "to_node": 2,
        "from_status": 1,
        "to_status": 1,
        "r1": 1.510218523998229,
        "x1": 1.6753167534885949,
        "c1": 1.4195051753283404e-07,
        "tan1": 0.0,
        "r0": 0.3,
        "x0": 0.3,
        "c0": 1e-09,
        "tan0": 0.0,
        "i_n": 745.9801075315986
      },
      {
        "id": 10,
        "from_node": 2,
        "to_node": 3,
        "from_status": 1,
        "to_status": 1,
        "r1": 1.5505412601747266,
        "x1": 3.9462099678945046,
        "c1": 9.56205037257012e-07,
        "tan1": 0.0,
        "r0": 0.3,
        "x0": 0.3,
        "c0": 1e-09,
        "tan0": 0.0,
        "i_n": 260.9709449125047
      },
      {
        "id": 11,
        "from_node": 3,
        "to_node": 4,
        "from_status": 1,
        "to_status": 1,
        "r1": 4.467703519536547,
        "x1": 4.038184121476416,
        "c1": 6.674189689081608e-07,
        "tan1": 0.0,
        "r0": 0.3,
        "x0": 0.3,
        "c0": 1e-09,
        "tan0": 0.0,
        "i_n": 37.09566012085733
      },
      {
        "id": 12,
        "from_node": 4,
        "to_node": 5,
        "from_status": 1,
        "to_status": 1,
        "r1": 2.283941641401034,
        "x1": 3.1337437668272154,
        "c1": 2.962256519901001e-07,
        "tan1": 0.0,
        "r0": 0.3,
        "x0": 0.3,
        "c0": 1e-09,
        "tan0": 0.0,
        "i_n": 232.09215726572933
      },
      {
        "id": 13,
        "from_node": 5,
        "to_node": 6,
        "from_status": 1,
        "to_status": 1,
        "r1": 1.5489509463974305,
        "x1": 1.291175239543663,
        "c1": 7.878252125228973e-07,
        "tan1": 0.0,
        "r0": 0.3,
        "x0": 0.3,
        "c0": 1e-09,
        "tan0": 0.0,
        "i_n": 354.30273882560334
      }
    ],
    "sym_load": [
      {
        "id": 14,
        "node": 1,
        "status": 1,
        "type": 2,
        "p_specified": -65546.84795680115,
        "q_specified": 1252.8892298075552
      },
      {
        "id": 15,
        "node": 2,
        "status": 1,
        "type": 1,
        "p_specified": 94776.87490523621,
        "q_specified": 6651.411354533146
      },
      {
        "id": 16,
        "node": 4,
        "status": 1,
        "type": 0,
        "p_specified": -2022.6997814932547,
        "q_specified": -3822.5157105567932
      },
      {
        "id": 17,
        "node": 5,
        "status": 1,
        "type": 1,
        "p_specified": -86853.60973439207,
        "q_specified": 3985.704404451524
      }
    ],
    "shunt": [
      {
        "id": 18,
        "node": 0,
        "status": 1,
        "g1": 8.424283777497127e-05,
        "b1": -1.6936152965010452e-06,
        "g0": 0.0001,
        "b0": 0.0001
      }
    ]
  }
}